Alimentador_BandeirantesPR/ChavesMT807560002.dss
New Line.360296634_MTCH Phases=3  Bus1=MT2146.1.2.3  Bus2=MT1.1.2.3   r1=0.001 r0=0.001 x1=0 x0=0 c1=0 c0=0 length=0.001 switch=T
New Line.360296642_MTCH Phases=3  Bus1=MT2.1.2.3  Bus2=MT1187.1.2.3   r1=0.001 r0=0.001 x1=0 x0=0 c1=0 c0=0 length=0.001 switch=T
New Line.360296697_MTCH Phases=3  Bus1=MT15.1.2.3  Bus2=MT16.1.2.3   r1=0.001 r0=0.001 x1=0 x0=0 c1=0 c0=0 length=0.001 switch=T
New Line.360296731_MTCH Phases=3  Bus1=MT1135.1.2.3  Bus2=MT24.1.2.3   r1=0.001 r0=0.001 x1=0 x0=0 c1=0 c0=0 length=0.001 switch=T
New Line.360296806_MTCH Phases=3  Bus1=MT43.1.2.3  Bus2=MT48.1.2.3   r1=0.001 r0=0.001 x1=0 x0=0 c1=0 c0=0 length=0.001 switch=T
New Line.360296854_MTCH Phases=3  Bus1=MT60.1.2.3  Bus2=MT61.1.2.3   r1=0.001 r0=0.001 x1=0 x0=0 c1=0 c0=0 length=0.001 switch=T
New Line.360296915_MTCH Phases=3  Bus1=MT68.1.2.3  Bus2=MT69.1.2.3   r1=0.001 r0=0.001 x1=0 x0=0 c1=0 c0=0 length=0.001 switch=T
New Line.360296940_MTCH Phases=3  Bus1=MT1177.1.2.3  Bus2=MT77.1.2.3   r1=0.001 r0=0.001 x1=0 x0=0 c1=0 c0=0 length=0.001 switch=T
New Line.360296957_MTCH Phases=3  Bus1=MT81.1.2.3  Bus2=MT79.1.2.3   r1=0.001 r0=0.001 x1=0 x0=0 c1=0 c0=0 length=0.001 switch=T
New Line.360297013_MTCH Phases=3  Bus1=MT86.1.2.3  Bus2=MT987.1.2.3   r1=0.001 r0=0.001 x1=0 x0=0 c1=0 c0=0 length=0.001 switch=T
New Line.360297033_MTCH Phases=3  Bus1=MT1192.1.2.3  Bus2=MT2040.1.2.3   r1=0.001 r0=0.001 x1=0 x0=0 c1=0 c0=0 length=0.001 switch=T
New Line.360297065_MTCH Phases=3  Bus1=MT94.1.2.3  Bus2=MT95.1.2.3   r1=0.001 r0=0.001 x1=0 x0=0 c1=0 c0=0 length=0.001 switch=T
New Line.360297130_MTCH Phases=3  Bus1=MT126.1.2.3  Bus2=MT119.1.2.3   r1=0.001 r0=0.001 x1=0 x0=0 c1=0 c0=0 length=0.001 switch=T
New Line.360297203_MTCH Phases=3  Bus1=MT129.1.2.3  Bus2=MT130.1.2.3   r1=0.001 r0=0.001 x1=0 x0=0 c1=0 c0=0 length=0.001 switch=T
New Line.360297233_MTCH Phases=3  Bus1=MT134.1.2.3  Bus2=MT1717.1.2.3   r1=0.001 r0=0.001 x1=0 x0=0 c1=0 c0=0 length=0.001 switch=T
New Line.360297242_MTCH Phases=3  Bus1=MT1463.1.2.3  Bus2=MT1719.1.2.3   r1=0.001 r0=0.001 x1=0 x0=0 c1=0 c0=0 length=0.001 switch=T
New Line.360297275_MTCH Phases=3  Bus1=MT1725.1.2.3  Bus2=MT138.1.2.3   r1=0.001 r0=0.001 x1=0 x0=0 c1=0 c0=0 length=0.001 switch=T
New Line.360297297_MTCH Phases=3  Bus1=MT141.1.2.3  Bus2=MT1742.1.2.3   r1=0.001 r0=0.001 x1=0 x0=0 c1=0 c0=0 length=0.001 switch=T
New Line.360297343_MTCH Phases=3  Bus1=MT1776.1.2.3  Bus2=MT1777.1.2.3   r1=0.001 r0=0.001 x1=0 x0=0 c1=0 c0=0 length=0.001 switch=T
New Line.360297454_MTCH Phases=3  Bus1=MT1331.1.2.3  Bus2=MT1786.1.2.3   r1=0.001 r0=0.001 x1=0 x0=0 c1=0 c0=0 length=0.001 switch=T
New Line.360297493_MTCH Phases=3  Bus1=MT161.1.2.3  Bus2=MT162.1.2.3   r1=0.001 r0=0.001 x1=0 x0=0 c1=0 c0=0 length=0.001 switch=T
New Line.360297511_MTCH Phases=3  Bus1=MT1522.1.2.3  Bus2=MT164.1.2.3   r1=0.001 r0=0.001 x1=0 x0=0 c1=0 c0=0 length=0.001 switch=T
New Line.360297557_MTCH Phases=3  Bus1=MT166.1.2.3  Bus2=MT167.1.2.3   r1=0.001 r0=0.001 x1=0 x0=0 c1=0 c0=0 length=0.001 switch=T
New Line.360297589_MTCH Phases=3  Bus1=MT1783.1.2.3  Bus2=MT171.1.2.3   r1=0.001 r0=0.001 x1=0 x0=0 c1=0 c0=0 length=0.001 switch=T
New Line.360297624_MTCH Phases=3  Bus1=MT175.1.2.3  Bus2=MT176.1.2.3   r1=0.001 r0=0.001 x1=0 x0=0 c1=0 c0=0 length=0.001 switch=T
New Line.360297636_MTCH Phases=3  Bus1=MT180.1.2.3  Bus2=MT178.1.2.3   r1=0.001 r0=0.001 x1=0 x0=0 c1=0 c0=0 length=0.001 switch=T
New Line.360297695_MTCH Phases=3  Bus1=MT191.1.2.3  Bus2=MT1701.1.2.3   r1=0.001 r0=0.001 x1=0 x0=0 c1=0 c0=0 length=0.001 switch=T
New Line.360297793_MTCH Phases=2  Bus1=MT203.3.1  Bus2=MT204.3.1   r1=0.001 r0=0.001 x1=0 x0=0 c1=0 c0=0 length=0.001 switch=T
New Line.360297982_MTCH Phases=2  Bus1=MT1671.3.1  Bus2=MT228.3.1   r1=0.001 r0=0.001 x1=0 x0=0 c1=0 c0=0 length=0.001 switch=T
New Line.360298181_MTCH Phases=3  Bus1=MT252.1.2.3  Bus2=MT2143.1.2.3   r1=0.001 r0=0.001 x1=0 x0=0 c1=0 c0=0 length=0.001 switch=T
New Line.360298319_MTCH Phases=2  Bus1=MT2056.3.1  Bus2=MT1908.3.1   r1=0.001 r0=0.001 x1=0 x0=0 c1=0 c0=0 length=0.001 switch=T
New Line.360298640_MTCH Phases=3  Bus1=MT312.1.2.3  Bus2=MT310.1.2.3   r1=0.001 r0=0.001 x1=0 x0=0 c1=0 c0=0 length=0.001 switch=T
New Line.360298660_MTCH Phases=3  Bus1=MT314.1.2.3  Bus2=MT315.1.2.3   r1=0.001 r0=0.001 x1=0 x0=0 c1=0 c0=0 length=0.001 switch=T
New Line.360298677_MTCH Phases=3  Bus1=MT2073.1.2.3  Bus2=MT317.1.2.3   r1=0.001 r0=0.001 x1=0 x0=0 c1=0 c0=0 length=0.001 switch=T
New Line.360298695_MTCH Phases=3  Bus1=MT319.1.2.3  Bus2=MT2144.1.2.3   r1=0.001 r0=0.001 x1=0 x0=0 c1=0 c0=0 length=0.001 switch=T
New Line.360298712_MTCH Phases=3  Bus1=MT320.1.2.3  Bus2=MT321.1.2.3   r1=0.001 r0=0.001 x1=0 x0=0 c1=0 c0=0 length=0.001 switch=T
New Line.360298808_MTCH Phases=2  Bus1=MT181.3.1  Bus2=MT1728.3.1   r1=0.001 r0=0.001 x1=0 x0=0 c1=0 c0=0 length=0.001 switch=T
New Line.360298920_MTCH Phases=3  Bus1=MT1658.1.2.3  Bus2=MT338.1.2.3   r1=0.001 r0=0.001 x1=0 x0=0 c1=0 c0=0 length=0.001 switch=T
New Line.360298940_MTCH Phases=3  Bus1=MT1662.1.2.3  Bus2=MT340.1.2.3   r1=0.001 r0=0.001 x1=0 x0=0 c1=0 c0=0 length=0.001 switch=T
New Line.360298950_MTCH Phases=3  Bus1=MT1821.1.2.3  Bus2=MT343.1.2.3   r1=0.001 r0=0.001 x1=0 x0=0 c1=0 c0=0 length=0.001 switch=T
New Line.360298996_MTCH Phases=2  Bus1=MT351.3.1  Bus2=MT352.3.1   r1=0.001 r0=0.001 x1=0 x0=0 c1=0 c0=0 length=0.001 switch=T
New Line.360299070_MTCH Phases=3  Bus1=MT361.1.2.3  Bus2=MT362.1.2.3   r1=0.001 r0=0.001 x1=0 x0=0 c1=0 c0=0 length=0.001 switch=T
New Line.360299132_MTCH Phases=2  Bus1=MT371.3.1  Bus2=MT372.3.1   r1=0.001 r0=0.001 x1=0 x0=0 c1=0 c0=0 length=0.001 switch=T
New Line.360299165_MTCH Phases=3  Bus1=MT377.1.2.3  Bus2=MT378.1.2.3   r1=0.001 r0=0.001 x1=0 x0=0 c1=0 c0=0 length=0.001 switch=T
New Line.360299208_MTCH Phases=3  Bus1=MT386.1.2.3  Bus2=MT387.1.2.3   r1=0.001 r0=0.001 x1=0 x0=0 c1=0 c0=0 length=0.001 switch=T
New Line.360299233_MTCH Phases=3  Bus1=MT389.1.2.3  Bus2=MT390.1.2.3   r1=0.001 r0=0.001 x1=0 x0=0 c1=0 c0=0 length=0.001 switch=T
New Line.360299263_MTCH Phases=3  Bus1=MT396.1.2.3  Bus2=MT397.1.2.3   r1=0.001 r0=0.001 x1=0 x0=0 c1=0 c0=0 length=0.001 switch=T
New Line.360299271_MTCH Phases=3  Bus1=MT398.1.2.3  Bus2=MT399.1.2.3   r1=0.001 r0=0.001 x1=0 x0=0 c1=0 c0=0 length=0.001 switch=T
New Line.360299292_MTCH Phases=3  Bus1=MT401.1.2.3  Bus2=MT402.1.2.3   r1=0.001 r0=0.001 x1=0 x0=0 c1=0 c0=0 length=0.001 switch=T
New Line.360299313_MTCH Phases=3  Bus1=MT410.1.2.3  Bus2=MT408.1.2.3   r1=0.001 r0=0.001 x1=0 x0=0 c1=0 c0=0 length=0.001 switch=T
New Line.360299331_MTCH Phases=3  Bus1=MT411.1.2.3  Bus2=MT412.1.2.3   r1=0.001 r0=0.001 x1=0 x0=0 c1=0 c0=0 length=0.001 switch=T
New Line.360299349_MTCH Phases=2  Bus1=MT417.3.1  Bus2=MT415.3.1   r1=0.001 r0=0.001 x1=0 x0=0 c1=0 c0=0 length=0.001 switch=T
New Line.360299377_MTCH Phases=3  Bus1=MT422.1.2.3  Bus2=MT420.1.2.3   r1=0.001 r0=0.001 x1=0 x0=0 c1=0 c0=0 length=0.001 switch=T
New Line.360299467_MTCH Phases=2  Bus1=MT428.3.1  Bus2=MT434.3.1   r1=0.001 r0=0.001 x1=0 x0=0 c1=0 c0=0 length=0.001 switch=T
New Line.360299484_MTCH Phases=3  Bus1=MT426.1.2.3  Bus2=MT436.1.2.3   r1=0.001 r0=0.001 x1=0 x0=0 c1=0 c0=0 length=0.001 switch=T
New Line.360299518_MTCH Phases=3  Bus1=MT1898.1.2.3  Bus2=MT442.1.2.3   r1=0.001 r0=0.001 x1=0 x0=0 c1=0 c0=0 length=0.001 switch=T
New Line.360299530_MTCH Phases=3  Bus1=MT450.1.2.3  Bus2=MT444.1.2.3   r1=0.001 r0=0.001 x1=0 x0=0 c1=0 c0=0 length=0.001 switch=T
New Line.360299548_MTCH Phases=3  Bus1=MT448.1.2.3  Bus2=MT446.1.2.3   r1=0.001 r0=0.001 x1=0 x0=0 c1=0 c0=0 length=0.001 switch=T
New Line.360299600_MTCH Phases=3  Bus1=MT1876.1.2.3  Bus2=MT455.1.2.3   r1=0.001 r0=0.001 x1=0 x0=0 c1=0 c0=0 length=0.001 switch=T
New Line.360299665_MTCH Phases=2  Bus1=MT459.3.1  Bus2=MT460.3.1   r1=0.001 r0=0.001 x1=0 x0=0 c1=0 c0=0 length=0.001 switch=T
New Line.360299698_MTCH Phases=3  Bus1=MT466.1.2.3  Bus2=MT467.1.2.3   r1=0.001 r0=0.001 x1=0 x0=0 c1=0 c0=0 length=0.001 switch=T
New Line.360299729_MTCH Phases=3  Bus1=MT474.1.2.3  Bus2=MT475.1.2.3   r1=0.001 r0=0.001 x1=0 x0=0 c1=0 c0=0 length=0.001 switch=T
New Line.360299737_MTCH Phases=3  Bus1=MT479.1.2.3  Bus2=MT477.1.2.3   r1=0.001 r0=0.001 x1=0 x0=0 c1=0 c0=0 length=0.001 switch=T
New Line.360299789_MTCH Phases=3  Bus1=MT487.1.2.3  Bus2=MT488.1.2.3   r1=0.001 r0=0.001 x1=0 x0=0 c1=0 c0=0 length=0.001 switch=T
New Line.360299823_MTCH Phases=3  Bus1=MT492.1.2.3  Bus2=MT490.1.2.3   r1=0.001 r0=0.001 x1=0 x0=0 c1=0 c0=0 length=0.001 switch=T
New Line.360299882_MTCH Phases=3  Bus1=MT502.1.2.3  Bus2=MT500.1.2.3   r1=0.001 r0=0.001 x1=0 x0=0 c1=0 c0=0 length=0.001 switch=T
New Line.360299910_MTCH Phases=3  Bus1=MT503.1.2.3  Bus2=MT504.1.2.3   r1=0.001 r0=0.001 x1=0 x0=0 c1=0 c0=0 length=0.001 switch=T
New Line.360299973_MTCH Phases=3  Bus1=MT523.1.2.3  Bus2=MT524.1.2.3   r1=0.001 r0=0.001 x1=0 x0=0 c1=0 c0=0 length=0.001 switch=T
New Line.360300023_MTCH Phases=2  Bus1=MT1387.3.1  Bus2=MT2101.3.1   r1=0.001 r0=0.001 x1=0 x0=0 c1=0 c0=0 length=0.001 switch=T
New Line.360300216_MTCH Phases=2  Bus1=MT577.3.1  Bus2=MT570.3.1   r1=0.001 r0=0.001 x1=0 x0=0 c1=0 c0=0 length=0.001 switch=T
New Line.360300254_MTCH Phases=3  Bus1=MT578.1.2.3  Bus2=MT579.1.2.3   r1=0.001 r0=0.001 x1=0 x0=0 c1=0 c0=0 length=0.001 switch=T
New Line.360300389_MTCH Phases=2  Bus1=MT522.3.1  Bus2=MT596.3.1   r1=0.001 r0=0.001 x1=0 x0=0 c1=0 c0=0 length=0.001 switch=T
New Line.360300650_MTCH Phases=2  Bus1=MT521.3.1  Bus2=MT638.3.1   r1=0.001 r0=0.001 x1=0 x0=0 c1=0 c0=0 length=0.001 switch=T
New Line.360300861_MTCH Phases=2  Bus1=MT496.3.1  Bus2=MT665.3.1   r1=0.001 r0=0.001 x1=0 x0=0 c1=0 c0=0 length=0.001 switch=T
New Line.360300888_MTCH Phases=3  Bus1=MT670.1.2.3  Bus2=MT671.1.2.3   r1=0.001 r0=0.001 x1=0 x0=0 c1=0 c0=0 length=0.001 switch=T
New Line.360300933_MTCH Phases=3  Bus1=MT679.1.2.3  Bus2=MT1759.1.2.3   r1=0.001 r0=0.001 x1=0 x0=0 c1=0 c0=0 length=0.001 switch=T
New Line.360300952_MTCH Phases=3  Bus1=MT684.1.2.3  Bus2=MT685.1.2.3   r1=0.001 r0=0.001 x1=0 x0=0 c1=0 c0=0 length=0.001 switch=T
New Line.360300969_MTCH Phases=3  Bus1=MT690.1.2.3  Bus2=MT688.1.2.3   r1=0.001 r0=0.001 x1=0 x0=0 c1=0 c0=0 length=0.001 switch=T
New Line.360301036_MTCH Phases=3  Bus1=MT697.1.2.3  Bus2=MT698.1.2.3   r1=0.001 r0=0.001 x1=0 x0=0 c1=0 c0=0 length=0.001 switch=T
New Line.360301062_MTCH Phases=3  Bus1=MT705.1.2.3  Bus2=MT1919.1.2.3   r1=0.001 r0=0.001 x1=0 x0=0 c1=0 c0=0 length=0.001 switch=T
New Line.360301085_MTCH Phases=3  Bus1=MT710.1.2.3  Bus2=MT711.1.2.3   r1=0.001 r0=0.001 x1=0 x0=0 c1=0 c0=0 length=0.001 switch=T
New Line.360301119_MTCH Phases=3  Bus1=MT989.1.2.3  Bus2=MT988.1.2.3   r1=0.001 r0=0.001 x1=0 x0=0 c1=0 c0=0 length=0.001 switch=T
New Line.360301148_MTCH Phases=3  Bus1=MT722.1.2.3  Bus2=MT723.1.2.3   r1=0.001 r0=0.001 x1=0 x0=0 c1=0 c0=0 length=0.001 switch=T
New Line.360301212_MTCH Phases=3  Bus1=MT733.1.2.3  Bus2=MT1514.1.2.3   r1=0.001 r0=0.001 x1=0 x0=0 c1=0 c0=0 length=0.001 switch=T
New Line.360301227_MTCH Phases=3  Bus1=MT737.1.2.3  Bus2=MT1400.1.2.3   r1=0.001 r0=0.001 x1=0 x0=0 c1=0 c0=0 length=0.001 switch=T
New Line.360301328_MTCH Phases=2  Bus1=MT756.3.1  Bus2=MT757.3.1   r1=0.001 r0=0.001 x1=0 x0=0 c1=0 c0=0 length=0.001 switch=T
New Line.360301350_MTCH Phases=3  Bus1=MT760.1.2.3  Bus2=MT761.1.2.3   r1=0.001 r0=0.001 x1=0 x0=0 c1=0 c0=0 length=0.001 switch=T
New Line.360301405_MTCH Phases=3  Bus1=MT772.1.2.3  Bus2=MT773.1.2.3   r1=0.001 r0=0.001 x1=0 x0=0 c1=0 c0=0 length=0.001 switch=T
New Line.360301412_MTCH Phases=3  Bus1=MT777.1.2.3  Bus2=MT775.1.2.3   r1=0.001 r0=0.001 x1=0 x0=0 c1=0 c0=0 length=0.001 switch=T
New Line.360301452_MTCH Phases=3  Bus1=MT783.1.2.3  Bus2=MT784.1.2.3   r1=0.001 r0=0.001 x1=0 x0=0 c1=0 c0=0 length=0.001 switch=T
New Line.360301471_MTCH Phases=3  Bus1=MT341.1.2.3  Bus2=MT787.1.2.3   r1=0.001 r0=0.001 x1=0 x0=0 c1=0 c0=0 length=0.001 switch=T
New Line.360301488_MTCH Phases=3  Bus1=MT113.1.2.3  Bus2=MT789.1.2.3   r1=0.001 r0=0.001 x1=0 x0=0 c1=0 c0=0 length=0.001 switch=T
New Line.360301538_MTCH Phases=3  Bus1=MT804.1.2.3  Bus2=MT805.1.2.3   r1=0.001 r0=0.001 x1=0 x0=0 c1=0 c0=0 length=0.001 switch=T
New Line.360301591_MTCH Phases=3  Bus1=MT1097.1.2.3  Bus2=MT813.1.2.3   r1=0.001 r0=0.001 x1=0 x0=0 c1=0 c0=0 length=0.001 switch=T
New Line.360301660_MTCH Phases=3  Bus1=MT819.1.2.3  Bus2=MT1180.1.2.3   r1=0.001 r0=0.001 x1=0 x0=0 c1=0 c0=0 length=0.001 switch=T
New Line.360301776_MTCH Phases=3  Bus1=MT845.1.2.3  Bus2=MT846.1.2.3   r1=0.001 r0=0.001 x1=0 x0=0 c1=0 c0=0 length=0.001 switch=T
New Line.360301957_MTCH Phases=3  Bus1=MT1377.1.2.3  Bus2=MT1996.1.2.3   r1=0.001 r0=0.001 x1=0 x0=0 c1=0 c0=0 length=0.001 switch=T
New Line.360302085_MTCH Phases=3  Bus1=MT917.1.2.3  Bus2=MT918.1.2.3   r1=0.001 r0=0.001 x1=0 x0=0 c1=0 c0=0 length=0.001 switch=T
New Line.360302142_MTCH Phases=3  Bus1=MT922.1.2.3  Bus2=MT924.1.2.3   r1=0.001 r0=0.001 x1=0 x0=0 c1=0 c0=0 length=0.001 switch=T
New Line.360302258_MTCH Phases=3  Bus1=MT947.1.2.3  Bus2=MT948.1.2.3   r1=0.001 r0=0.001 x1=0 x0=0 c1=0 c0=0 length=0.001 switch=T
New Line.360302735_MTCH Phases=3  Bus1=MT976.1.2.3  Bus2=MT977.1.2.3   r1=0.001 r0=0.001 x1=0 x0=0 c1=0 c0=0 length=0.001 switch=T
New Line.371837690_MTCH Phases=3  Bus1=MT1013.1.2.3  Bus2=MT1014.1.2.3   r1=0.001 r0=0.001 x1=0 x0=0 c1=0 c0=0 length=0.001 switch=T
New Line.376379059_MTCH Phases=3  Bus1=MT1019.1.2.3  Bus2=MT2147.1.2.3   r1=0.001 r0=0.001 x1=0 x0=0 c1=0 c0=0 length=0.001 switch=T
New Line.380978046_MTCH Phases=3  Bus1=MT1199.1.2.3  Bus2=MT1212.1.2.3   r1=0.001 r0=0.001 x1=0 x0=0 c1=0 c0=0 length=0.001 switch=T
New Line.381692837_MTCH Phases=2  Bus1=MT1215.3.1  Bus2=MT1216.3.1   r1=0.001 r0=0.001 x1=0 x0=0 c1=0 c0=0 length=0.001 switch=T
New Line.383320892_MTCH Phases=2  Bus1=MT1219.3.1  Bus2=MT1220.3.1   r1=0.001 r0=0.001 x1=0 x0=0 c1=0 c0=0 length=0.001 switch=T
New Line.383320895_MTCH Phases=2  Bus1=MT1256.3.1  Bus2=MT1236.3.1   r1=0.001 r0=0.001 x1=0 x0=0 c1=0 c0=0 length=0.001 switch=T
New Line.383360980_MTCH Phases=2  Bus1=MT1267.3.1  Bus2=MT1281.3.1   r1=0.001 r0=0.001 x1=0 x0=0 c1=0 c0=0 length=0.001 switch=T
New Line.383360983_MTCH Phases=2  Bus1=MT1600.3.1  Bus2=MT1270.3.1   r1=0.001 r0=0.001 x1=0 x0=0 c1=0 c0=0 length=0.001 switch=T
New Line.384964331_MTCH Phases=2  Bus1=MT266.3.1  Bus2=MT1310.3.1   r1=0.001 r0=0.001 x1=0 x0=0 c1=0 c0=0 length=0.001 switch=T
New Line.385325034_MTCH Phases=3  Bus1=MT831.1.2.3  Bus2=MT832.1.2.3   r1=0.001 r0=0.001 x1=0 x0=0 c1=0 c0=0 length=0.001 switch=T
New Line.385325117_MTCH Phases=3  Bus1=MT1160.1.2.3  Bus2=MT963.1.2.3   r1=0.001 r0=0.001 x1=0 x0=0 c1=0 c0=0 length=0.001 switch=T
New Line.385325122_MTCH Phases=3  Bus1=MT968.1.2.3  Bus2=MT969.1.2.3   r1=0.001 r0=0.001 x1=0 x0=0 c1=0 c0=0 length=0.001 switch=T
New Line.386263197_MTCH Phases=3  Bus1=MT1211.1.2.3  Bus2=MT1313.1.2.3   r1=0.001 r0=0.001 x1=0 x0=0 c1=0 c0=0 length=0.001 switch=T
New Line.386759777_MTCH Phases=3  Bus1=MT695.1.2.3  Bus2=MT1316.1.2.3   r1=0.001 r0=0.001 x1=0 x0=0 c1=0 c0=0 length=0.001 switch=T
New Line.549322158_MTCH Phases=3  Bus1=MT199.1.2.3  Bus2=MT1332.1.2.3   r1=0.001 r0=0.001 x1=0 x0=0 c1=0 c0=0 length=0.001 switch=T
New Line.550708183_MTCH Phases=3  Bus1=MT1339.1.2.3  Bus2=MT1784.1.2.3   r1=0.001 r0=0.001 x1=0 x0=0 c1=0 c0=0 length=0.001 switch=T
New Line.552487778_MTCH Phases=3  Bus1=MT83.1.2.3  Bus2=MT1343.1.2.3   r1=0.001 r0=0.001 x1=0 x0=0 c1=0 c0=0 length=0.001 switch=T
New Line.554136018_MTCH Phases=3  Bus1=MT1346.1.2.3  Bus2=MT1347.1.2.3   r1=0.001 r0=0.001 x1=0 x0=0 c1=0 c0=0 length=0.001 switch=T
New Line.562450586_MTCH Phases=3  Bus1=MT739.1.2.3  Bus2=MT740.1.2.3   r1=0.001 r0=0.001 x1=0 x0=0 c1=0 c0=0 length=0.001 switch=T
New Line.562450809_MTCH Phases=3  Bus1=MT748.1.2.3  Bus2=MT749.1.2.3   r1=0.001 r0=0.001 x1=0 x0=0 c1=0 c0=0 length=0.001 switch=T
New Line.562450972_MTCH Phases=3  Bus1=MT1611.1.2.3  Bus2=MT1610.1.2.3   r1=0.001 r0=0.001 x1=0 x0=0 c1=0 c0=0 length=0.001 switch=T
New Line.562899799_MTCH Phases=3  Bus1=MT45.1.2.3  Bus2=MT46.1.2.3   r1=0.001 r0=0.001 x1=0 x0=0 c1=0 c0=0 length=0.001 switch=T
New Line.563600792_MTCH Phases=3  Bus1=MT1900.1.2.3  Bus2=MT1901.1.2.3   r1=0.001 r0=0.001 x1=0 x0=0 c1=0 c0=0 length=0.001 switch=T
New Line.563922196_MTCH Phases=2  Bus1=MT592.3.1  Bus2=MT1903.3.1   r1=0.001 r0=0.001 x1=0 x0=0 c1=0 c0=0 length=0.001 switch=T
New Line.565327655_MTCH Phases=3  Bus1=MT1910.1.2.3  Bus2=MT1911.1.2.3   r1=0.001 r0=0.001 x1=0 x0=0 c1=0 c0=0 length=0.001 switch=T
New Line.565672568_MTCH Phases=3  Bus1=MT1916.1.2.3  Bus2=MT1977.1.2.3   r1=0.001 r0=0.001 x1=0 x0=0 c1=0 c0=0 length=0.001 switch=T
New Line.568633489_MTCH Phases=3  Bus1=MT1931.1.2.3  Bus2=MT1932.1.2.3   r1=0.001 r0=0.001 x1=0 x0=0 c1=0 c0=0 length=0.001 switch=T
New Line.568884198_MTCH Phases=3  Bus1=MT1191.1.2.3  Bus2=MT1947.1.2.3   r1=0.001 r0=0.001 x1=0 x0=0 c1=0 c0=0 length=0.001 switch=T
New Line.571428593_MTCH Phases=3  Bus1=MT834.1.2.3  Bus2=MT837.1.2.3   r1=0.001 r0=0.001 x1=0 x0=0 c1=0 c0=0 length=0.001 switch=T
New Line.577294853_MTCH Phases=3  Bus1=MT1558.1.2.3  Bus2=MT2007.1.2.3   r1=0.001 r0=0.001 x1=0 x0=0 c1=0 c0=0 length=0.001 switch=T
New Line.578445294_MTCH Phases=2  Bus1=MT1998.3.1  Bus2=MT2000.3.1   r1=0.001 r0=0.001 x1=0 x0=0 c1=0 c0=0 length=0.001 switch=T
New Line.579863857_MTCH Phases=3  Bus1=MT2026.1.2.3  Bus2=MT2022.1.2.3   r1=0.001 r0=0.001 x1=0 x0=0 c1=0 c0=0 length=0.001 switch=T
New Line.579863872_MTCH Phases=3  Bus1=MT2023.1.2.3  Bus2=MT2024.1.2.3   r1=0.001 r0=0.001 x1=0 x0=0 c1=0 c0=0 length=0.001 switch=T
New Line.579863887_MTCH Phases=3  Bus1=MT2012.1.2.3  Bus2=MT2025.1.2.3   r1=0.001 r0=0.001 x1=0 x0=0 c1=0 c0=0 length=0.001 switch=T
New Line.579879762_MTCH Phases=3  Bus1=MT2031.1.2.3  Bus2=MT2029.1.2.3   r1=0.001 r0=0.001 x1=0 x0=0 c1=0 c0=0 length=0.001 switch=T
New Line.579879981_MTCH Phases=3  Bus1=MT2030.1.2.3  Bus2=MT2032.1.2.3   r1=0.001 r0=0.001 x1=0 x0=0 c1=0 c0=0 length=0.001 switch=T
New Line.581736310_MTCH Phases=3  Bus1=MT1324.1.2.3  Bus2=MT2038.1.2.3   r1=0.001 r0=0.001 x1=0 x0=0 c1=0 c0=0 length=0.001 switch=T
New Line.583812617_MTCH Phases=2  Bus1=MT2054.3.1  Bus2=MT2057.3.1   r1=0.001 r0=0.001 x1=0 x0=0 c1=0 c0=0 length=0.001 switch=T
New Line.876632626_MTCH Phases=3  Bus1=MT2075.1.2.3  Bus2=MT2083.1.2.3   r1=0.001 r0=0.001 x1=0 x0=0 c1=0 c0=0 length=0.001 switch=T
New Line.885786459_MTCH Phases=3  Bus1=MT2100.1.2.3  Bus2=MT1981.1.2.3   r1=0.001 r0=0.001 x1=0 x0=0 c1=0 c0=0 length=0.001 switch=T
New Line.885786463_MTCH Phases=3  Bus1=MT1105.1.2.3  Bus2=MT1104.1.2.3   r1=0.001 r0=0.001 x1=0 x0=0 c1=0 c0=0 length=0.001 switch=T
New Line.895896858_MTCH Phases=2  Bus1=MT1263.3.1  Bus2=MT1279.3.1   r1=0.001 r0=0.001 x1=0 x0=0 c1=0 c0=0 length=0.001 switch=T
New Line.895896862_MTCH Phases=2  Bus1=MT1243.3.1  Bus2=MT1252.3.1   r1=0.001 r0=0.001 x1=0 x0=0 c1=0 c0=0 length=0.001 switch=T
New Line.895896867_MTCH Phases=2  Bus1=MT1285.3.1  Bus2=MT1292.3.1   r1=0.001 r0=0.001 x1=0 x0=0 c1=0 c0=0 length=0.001 switch=T
New Line.896012471_MTCH Phases=2  Bus1=MT1249.3.1  Bus2=MT1254.3.1   r1=0.001 r0=0.001 x1=0 x0=0 c1=0 c0=0 length=0.001 switch=T
New Line.897748368_MTCH Phases=3  Bus1=MT1613.1.2.3  Bus2=MT2106.1.2.3   r1=0.001 r0=0.001 x1=0 x0=0 c1=0 c0=0 length=0.001 switch=T
New Line.927244736_MTCH Phases=3  Bus1=MT2116.1.2.3  Bus2=MT7.1.2.3   r1=0.001 r0=0.001 x1=0 x0=0 c1=0 c0=0 length=0.001 switch=T
New Line.927357230_MTCH Phases=2  Bus1=MT150.3.1  Bus2=MT2117.3.1   r1=0.001 r0=0.001 x1=0 x0=0 c1=0 c0=0 length=0.001 switch=T
